Version 4.1
SHEET 1 996 680
WIRE 320 64 176 64
WIRE 352 64 320 64
WIRE 176 112 176 64
WIRE 352 112 352 64
WIRE 384 112 352 112
WIRE 416 112 384 112
WIRE 736 112 672 112
WIRE 800 112 736 112
WIRE 928 112 800 112
WIRE 928 128 928 112
WIRE 320 144 320 64
WIRE 384 144 384 112
WIRE 736 160 736 112
WIRE 800 160 800 112
WIRE 320 240 320 208
WIRE 384 240 384 208
WIRE 544 256 544 208
WIRE 928 256 928 208
WIRE 736 272 736 224
WIRE 800 272 800 224
FLAG 176 192 0
FLAG 544 256 0
FLAG 928 256 0
FLAG 800 272 0
FLAG 320 240 0
FLAG 384 240 0
FLAG 736 272 0
SYMBOL voltage 176 96 R0
WINDOW 123 0 0 Left 0
WINDOW 39 24 124 Left 2
SYMATTR SpiceLine Rser=0
SYMATTR InstName V1
SYMATTR Value 5
SYMBOL PowerProducts\\LT1117-3.3 544 112 R0
SYMATTR InstName U2
SYMBOL res 912 112 R0
SYMATTR InstName R1
SYMATTR Value 10
SYMBOL cap 304 144 R0
SYMATTR InstName C1
SYMATTR Value 10n
SYMBOL cap 784 160 R0
SYMATTR InstName C2
SYMATTR Value 10n
SYMBOL cap 368 144 R0
SYMATTR InstName C3
SYMATTR Value 10n
SYMBOL cap 720 160 R0
SYMATTR InstName C4
SYMATTR Value 10n
TEXT 136 280 Left 2 !.tran 1n
